%mem=256MB
#P HF 6-31G(d) pop=nboread

! File generated by the HuLiS 3.3.7 code - Monday, March 18, 2024 at 1:43:23 PM Central European Standard Time

0 1
C     -2.36345      3.10989      0.86876
C     -2.99763      2.19802      1.68831
C     -1.08359      2.83834      0.32243
C     -2.34964      0.98579      2.00248
C     -0.46005      1.57234      0.56215
C     -0.38046      3.85039     -0.40526
C      0.91992      3.65809     -0.76440
C     -1.11880      0.68314      1.45036
C      0.84942      1.29704     -0.02056
C      1.50655     -0.00149     -0.00287
C      1.57819      2.40697     -0.53049
C      2.98246      2.30227     -0.75621
C      2.93581     -0.00294     -0.00570
C      3.65067     -1.17197      0.38915
C      3.65147      1.16463     -0.40334
C      2.98075     -2.30823      0.74469
C      1.57538     -2.41009      0.52450
C      0.91552     -3.65988      0.76101
C     -0.38665     -3.84956      0.40696
C     -1.09058     -2.83609     -0.31796
C     -0.46544     -1.57135     -0.56013
C      0.84685     -1.29870      0.01743
C     -2.37312     -3.10506     -0.85926
C     -1.12587     -0.68083     -1.44576
C     -3.00868     -2.19191     -1.67632
C     -2.35948     -0.98099     -1.99304
H     -2.82530      4.07003      0.65290
H     -3.97266      2.42278      2.11057
H     -2.81595      0.28305      2.68676
H     -0.87767      4.79670     -0.60083
H     -0.63936     -0.24727      1.72427
H      1.48961      4.45755     -1.23074
H      3.51738      3.16985     -1.13265
H      4.73583      1.11669     -0.45405
H      4.73531     -1.12622      0.43559
H      3.51538     -3.17689      1.11905
H      1.48541     -4.46049      1.22512
H     -0.88499     -4.79487      0.60449
H     -2.83605     -4.06427     -0.64158
H     -3.98580     -2.41471     -2.09475
H     -0.64563      0.24861     -1.72156
H     -2.82705     -0.27731     -2.67549

$nbo nrt $end
$NRTSTR ! Trust factor = 20.00% (HLP) 
  STR        ! HuLiS Wgt = 2.87% (HLP)  S1
    LONE END
    BOND D 1 3 D 2 4 D 5 8 D 6 7 D 9 10 D 11 12 D 13 15 D 14 16 D 17 18 D 19 20 D 21 22 D 23 25 D 24 26 S 1 2 S 1 27 S 2 28 S 3 5 S 3 6 S 4 8 S 4 29 S 5 9 S 6 30 S 7 11 S 7 32 S 8 31 S 9 11 S 10 13 S 10 22 S 12 15 S 12 33 S 13 14 S 14 35 S 15 34 S 16 17 S 16 36 S 17 22 S 18 19 S 18 37 S 19 38 S 20 21 S 20 23 S 21 24 S 23 39 S 24 41 S 25 26 S 25 40 S 26 42 END
  END
  STR        ! HuLiS Wgt = 2.87% (HLP)  S2
    LONE END
    BOND D 1 2 D 3 6 D 4 8 D 5 9 D 7 11 D 10 22 D 12 15 D 13 14 D 16 17 D 18 19 D 20 23 D 21 24 D 25 26 S 1 3 S 1 27 S 2 4 S 2 28 S 3 5 S 4 29 S 5 8 S 6 7 S 6 30 S 7 32 S 8 31 S 9 10 S 9 11 S 10 13 S 11 12 S 12 33 S 13 15 S 14 16 S 14 35 S 15 34 S 16 36 S 17 18 S 17 22 S 18 37 S 19 20 S 19 38 S 20 21 S 21 22 S 23 25 S 23 39 S 24 26 S 24 41 S 25 40 S 26 42 END
  END
  STR        ! HuLiS Wgt = 4.69% (HLP)  S3
    LONE END
    BOND D 1 3 D 2 4 D 5 8 D 6 7 D 9 10 D 11 12 D 13 15 D 14 16 D 17 22 D 18 19 D 20 21 D 23 25 D 24 26 S 1 2 S 1 27 S 2 28 S 3 5 S 3 6 S 4 8 S 4 29 S 5 9 S 6 30 S 7 11 S 7 32 S 8 31 S 9 11 S 10 13 S 10 22 S 12 15 S 12 33 S 13 14 S 14 35 S 15 34 S 16 17 S 16 36 S 17 18 S 18 37 S 19 20 S 19 38 S 20 23 S 21 22 S 21 24 S 23 39 S 24 41 S 25 26 S 25 40 S 26 42 END
  END
  STR        ! HuLiS Wgt = 5.21% (HLP)  S4
    LONE END
    BOND D 1 2 D 3 6 D 4 8 D 5 9 D 7 11 D 10 13 D 12 15 D 14 16 D 17 22 D 18 19 D 20 21 D 23 25 D 24 26 S 1 3 S 1 27 S 2 4 S 2 28 S 3 5 S 4 29 S 5 8 S 6 7 S 6 30 S 7 32 S 8 31 S 9 10 S 9 11 S 10 22 S 11 12 S 12 33 S 13 14 S 13 15 S 14 35 S 15 34 S 16 17 S 16 36 S 17 18 S 18 37 S 19 20 S 19 38 S 20 23 S 21 22 S 21 24 S 23 39 S 24 41 S 25 26 S 25 40 S 26 42 END
  END
  STR        ! HuLiS Wgt = 7.07% (HLP)  S5
    LONE END
    BOND D 1 3 D 2 4 D 5 8 D 6 7 D 9 11 D 10 13 D 12 15 D 14 16 D 17 22 D 18 19 D 20 21 D 23 25 D 24 26 S 1 2 S 1 27 S 2 28 S 3 5 S 3 6 S 4 8 S 4 29 S 5 9 S 6 30 S 7 11 S 7 32 S 8 31 S 9 10 S 10 22 S 11 12 S 12 33 S 13 14 S 13 15 S 14 35 S 15 34 S 16 17 S 16 36 S 17 18 S 18 37 S 19 20 S 19 38 S 20 23 S 21 22 S 21 24 S 23 39 S 24 41 S 25 26 S 25 40 S 26 42 END
  END
  STR        ! HuLiS Wgt = 8.85% (HLP)  S6
    LONE END
    BOND D 1 2 D 3 5 D 4 8 D 6 7 D 9 11 D 10 13 D 12 15 D 14 16 D 17 22 D 18 19 D 20 21 D 23 25 D 24 26 S 1 3 S 1 27 S 2 4 S 2 28 S 3 6 S 4 29 S 5 8 S 5 9 S 6 30 S 7 11 S 7 32 S 8 31 S 9 10 S 10 22 S 11 12 S 12 33 S 13 14 S 13 15 S 14 35 S 15 34 S 16 17 S 16 36 S 17 18 S 18 37 S 19 20 S 19 38 S 20 23 S 21 22 S 21 24 S 23 39 S 24 41 S 25 26 S 25 40 S 26 42 END
  END
  STR        ! HuLiS Wgt = 3.43% (HLP)  S7
    LONE END
    BOND D 1 2 D 3 5 D 4 8 D 6 7 D 9 10 D 11 12 D 13 15 D 14 16 D 17 18 D 19 20 D 21 22 D 23 25 D 24 26 S 1 3 S 1 27 S 2 4 S 2 28 S 3 6 S 4 29 S 5 8 S 5 9 S 6 30 S 7 11 S 7 32 S 8 31 S 9 11 S 10 13 S 10 22 S 12 15 S 12 33 S 13 14 S 14 35 S 15 34 S 16 17 S 16 36 S 17 22 S 18 19 S 18 37 S 19 38 S 20 21 S 20 23 S 21 24 S 23 39 S 24 41 S 25 26 S 25 40 S 26 42 END
  END
  STR        ! HuLiS Wgt = 4.69% (HLP)  S8
    LONE END
    BOND D 1 2 D 3 5 D 4 8 D 6 7 D 9 11 D 10 22 D 12 15 D 13 14 D 16 17 D 18 19 D 20 23 D 21 24 D 25 26 S 1 3 S 1 27 S 2 4 S 2 28 S 3 6 S 4 29 S 5 8 S 5 9 S 6 30 S 7 11 S 7 32 S 8 31 S 9 10 S 10 13 S 11 12 S 12 33 S 13 15 S 14 16 S 14 35 S 15 34 S 16 36 S 17 18 S 17 22 S 18 37 S 19 20 S 19 38 S 20 21 S 21 22 S 23 25 S 23 39 S 24 26 S 24 41 S 25 40 S 26 42 END
  END
  STR        ! HuLiS Wgt = 5.21% (HLP)  S9
    LONE END
    BOND D 1 2 D 3 5 D 4 8 D 6 7 D 9 11 D 10 13 D 12 15 D 14 16 D 17 18 D 19 20 D 21 22 D 23 25 D 24 26 S 1 3 S 1 27 S 2 4 S 2 28 S 3 6 S 4 29 S 5 8 S 5 9 S 6 30 S 7 11 S 7 32 S 8 31 S 9 10 S 10 22 S 11 12 S 12 33 S 13 14 S 13 15 S 14 35 S 15 34 S 16 17 S 16 36 S 17 22 S 18 19 S 18 37 S 19 38 S 20 21 S 20 23 S 21 24 S 23 39 S 24 41 S 25 26 S 25 40 S 26 42 END
  END
  STR        ! HuLiS Wgt = 7.07% (HLP)  S10
    LONE END
    BOND D 1 2 D 3 5 D 4 8 D 6 7 D 9 11 D 10 13 D 12 15 D 14 16 D 17 22 D 18 19 D 20 23 D 21 24 D 25 26 S 1 3 S 1 27 S 2 4 S 2 28 S 3 6 S 4 29 S 5 8 S 5 9 S 6 30 S 7 11 S 7 32 S 8 31 S 9 10 S 10 22 S 11 12 S 12 33 S 13 14 S 13 15 S 14 35 S 15 34 S 16 17 S 16 36 S 17 18 S 18 37 S 19 20 S 19 38 S 20 21 S 21 22 S 23 25 S 23 39 S 24 26 S 24 41 S 25 40 S 26 42 END
  END
  STR        ! HuLiS Wgt = 3.05% (HLP)  S11
    LONE END
    BOND D 1 2 D 3 6 D 4 8 D 5 9 D 7 11 D 10 13 D 12 15 D 14 16 D 17 18 D 19 20 D 21 22 D 23 25 D 24 26 S 1 3 S 1 27 S 2 4 S 2 28 S 3 5 S 4 29 S 5 8 S 6 7 S 6 30 S 7 32 S 8 31 S 9 10 S 9 11 S 10 22 S 11 12 S 12 33 S 13 14 S 13 15 S 14 35 S 15 34 S 16 17 S 16 36 S 17 22 S 18 19 S 18 37 S 19 38 S 20 21 S 20 23 S 21 24 S 23 39 S 24 41 S 25 26 S 25 40 S 26 42 END
  END
  STR        ! HuLiS Wgt = 4.45% (HLP)  S12
    LONE END
    BOND D 1 3 D 2 4 D 5 8 D 6 7 D 9 11 D 10 22 D 12 15 D 13 14 D 16 17 D 18 19 D 20 21 D 23 25 D 24 26 S 1 2 S 1 27 S 2 28 S 3 5 S 3 6 S 4 8 S 4 29 S 5 9 S 6 30 S 7 11 S 7 32 S 8 31 S 9 10 S 10 13 S 11 12 S 12 33 S 13 15 S 14 16 S 14 35 S 15 34 S 16 36 S 17 18 S 17 22 S 18 37 S 19 20 S 19 38 S 20 23 S 21 22 S 21 24 S 23 39 S 24 41 S 25 26 S 25 40 S 26 42 END
  END
  STR        ! HuLiS Wgt = 5.62% (HLP)  S13
    LONE END
    BOND D 1 2 D 3 5 D 4 8 D 6 7 D 9 10 D 11 12 D 13 15 D 14 16 D 17 22 D 18 19 D 20 21 D 23 25 D 24 26 S 1 3 S 1 27 S 2 4 S 2 28 S 3 6 S 4 29 S 5 8 S 5 9 S 6 30 S 7 11 S 7 32 S 8 31 S 9 11 S 10 13 S 10 22 S 12 15 S 12 33 S 13 14 S 14 35 S 15 34 S 16 17 S 16 36 S 17 18 S 18 37 S 19 20 S 19 38 S 20 23 S 21 22 S 21 24 S 23 39 S 24 41 S 25 26 S 25 40 S 26 42 END
  END
  STR        ! HuLiS Wgt = 5.62% (HLP)  S14
    LONE END
    BOND D 1 2 D 3 5 D 4 8 D 6 7 D 9 11 D 10 22 D 12 15 D 13 14 D 16 17 D 18 19 D 20 21 D 23 25 D 24 26 S 1 3 S 1 27 S 2 4 S 2 28 S 3 6 S 4 29 S 5 8 S 5 9 S 6 30 S 7 11 S 7 32 S 8 31 S 9 10 S 10 13 S 11 12 S 12 33 S 13 15 S 14 16 S 14 35 S 15 34 S 16 36 S 17 18 S 17 22 S 18 37 S 19 20 S 19 38 S 20 23 S 21 22 S 21 24 S 23 39 S 24 41 S 25 26 S 25 40 S 26 42 END
  END
  STR        ! HuLiS Wgt = 5.64% (HLP)  S15
    LONE END
    BOND D 1 3 D 2 4 D 5 8 D 6 7 D 9 11 D 10 13 D 12 15 D 14 16 D 17 22 D 18 19 D 20 23 D 21 24 D 25 26 S 1 2 S 1 27 S 2 28 S 3 5 S 3 6 S 4 8 S 4 29 S 5 9 S 6 30 S 7 11 S 7 32 S 8 31 S 9 10 S 10 22 S 11 12 S 12 33 S 13 14 S 13 15 S 14 35 S 15 34 S 16 17 S 16 36 S 17 18 S 18 37 S 19 20 S 19 38 S 20 21 S 21 22 S 23 25 S 23 39 S 24 26 S 24 41 S 25 40 S 26 42 END
  END
  STR        ! HuLiS Wgt = 4.17% (HLP)  S16
    LONE END
    BOND D 1 3 D 2 4 D 5 8 D 6 7 D 9 11 D 10 13 D 12 15 D 14 16 D 17 18 D 19 20 D 21 22 D 23 25 D 24 26 S 1 2 S 1 27 S 2 28 S 3 5 S 3 6 S 4 8 S 4 29 S 5 9 S 6 30 S 7 11 S 7 32 S 8 31 S 9 10 S 10 22 S 11 12 S 12 33 S 13 14 S 13 15 S 14 35 S 15 34 S 16 17 S 16 36 S 17 22 S 18 19 S 18 37 S 19 38 S 20 21 S 20 23 S 21 24 S 23 39 S 24 41 S 25 26 S 25 40 S 26 42 END
  END
  STR        ! HuLiS Wgt = 4.45% (HLP)  S17
    LONE END
    BOND D 1 2 D 3 5 D 4 8 D 6 7 D 9 10 D 11 12 D 13 15 D 14 16 D 17 22 D 18 19 D 20 23 D 21 24 D 25 26 S 1 3 S 1 27 S 2 4 S 2 28 S 3 6 S 4 29 S 5 8 S 5 9 S 6 30 S 7 11 S 7 32 S 8 31 S 9 11 S 10 13 S 10 22 S 12 15 S 12 33 S 13 14 S 14 35 S 15 34 S 16 17 S 16 36 S 17 18 S 18 37 S 19 20 S 19 38 S 20 21 S 21 22 S 23 25 S 23 39 S 24 26 S 24 41 S 25 40 S 26 42 END
  END
  STR        ! HuLiS Wgt = 3.71% (HLP)  S18
    LONE END
    BOND D 1 3 D 2 4 D 5 8 D 6 7 D 9 10 D 11 12 D 13 15 D 14 16 D 17 22 D 18 19 D 20 23 D 21 24 D 25 26 S 1 2 S 1 27 S 2 28 S 3 5 S 3 6 S 4 8 S 4 29 S 5 9 S 6 30 S 7 11 S 7 32 S 8 31 S 9 11 S 10 13 S 10 22 S 12 15 S 12 33 S 13 14 S 14 35 S 15 34 S 16 17 S 16 36 S 17 18 S 18 37 S 19 20 S 19 38 S 20 21 S 21 22 S 23 25 S 23 39 S 24 26 S 24 41 S 25 40 S 26 42 END
  END
  STR        ! HuLiS Wgt = 4.17% (HLP)  S19
    LONE END
    BOND D 1 2 D 3 6 D 4 8 D 5 9 D 7 11 D 10 13 D 12 15 D 14 16 D 17 22 D 18 19 D 20 23 D 21 24 D 25 26 S 1 3 S 1 27 S 2 4 S 2 28 S 3 5 S 4 29 S 5 8 S 6 7 S 6 30 S 7 32 S 8 31 S 9 10 S 9 11 S 10 22 S 11 12 S 12 33 S 13 14 S 13 15 S 14 35 S 15 34 S 16 17 S 16 36 S 17 18 S 18 37 S 19 20 S 19 38 S 20 21 S 21 22 S 23 25 S 23 39 S 24 26 S 24 41 S 25 40 S 26 42 END
  END
  STR        ! HuLiS Wgt = 3.43% (HLP)  S20
    LONE END
    BOND D 1 2 D 3 6 D 4 8 D 5 9 D 7 11 D 10 22 D 12 15 D 13 14 D 16 17 D 18 19 D 20 21 D 23 25 D 24 26 S 1 3 S 1 27 S 2 4 S 2 28 S 3 5 S 4 29 S 5 8 S 6 7 S 6 30 S 7 32 S 8 31 S 9 10 S 9 11 S 10 13 S 11 12 S 12 33 S 13 15 S 14 16 S 14 35 S 15 34 S 16 36 S 17 18 S 17 22 S 18 37 S 19 20 S 19 38 S 20 23 S 21 22 S 21 24 S 23 39 S 24 41 S 25 26 S 25 40 S 26 42 END
  END
  STR        ! HuLiS Wgt = 3.71% (HLP)  S21
    LONE END
    BOND D 1 3 D 2 4 D 5 8 D 6 7 D 9 11 D 10 22 D 12 15 D 13 14 D 16 17 D 18 19 D 20 23 D 21 24 D 25 26 S 1 2 S 1 27 S 2 28 S 3 5 S 3 6 S 4 8 S 4 29 S 5 9 S 6 30 S 7 11 S 7 32 S 8 31 S 9 10 S 10 13 S 11 12 S 12 33 S 13 15 S 14 16 S 14 35 S 15 34 S 16 36 S 17 18 S 17 22 S 18 37 S 19 20 S 19 38 S 20 21 S 21 22 S 23 25 S 23 39 S 24 26 S 24 41 S 25 40 S 26 42 END
  END
$END
