%mem=256MB
#P HF 6-31G(d) pop=nboread

! File generated by the HuLiS 3.3.7 code - Monday, January 13, 2025 at 12:11:18 PM Central European Standard Time

0 1
C     -0.44913      0.85757     -0.14992
C      0.96498      0.91603     -0.20829
C      1.84530      2.04938     -0.11260
C     -1.35729      1.86556      0.06256
C      1.46765      3.42336     -0.11625
C     -1.11003      3.24910      0.20910
C      0.07547      3.93897      0.11550
C      1.45725      5.72421     -0.14385
C      3.19387      1.51382     -0.07320
C      1.74991     -0.26997     -0.34540
C      3.08994      0.04089     -0.28192
C      2.25929      4.55322     -0.29458
C      0.15500      5.36571      0.12766
C      4.14590     -0.89103     -0.39776
C      5.50203     -0.69661     -0.27049
C      6.18536      0.49371      0.07802
C      5.67584      1.74482      0.34212
C      4.33498      2.20157      0.26392
H     -0.68909      6.02657      0.26379
H      1.82483      6.73664     -0.25133
H      3.30247      4.57433     -0.56359
H     -1.99210      3.86450      0.37103
H     -2.40026      1.56815      0.11297
H     -0.86409     -0.14155     -0.25616
H      1.33942     -1.26347     -0.46695
H      3.82835     -1.90810     -0.61645
H      6.12809     -1.57067     -0.41877
H      7.26368      0.39616      0.17024
H      6.39855      2.49825      0.63947
H      4.20148      3.24221      0.52929

$nbo nrt $end
$NRTSTR ! Trust factor = 24.84% (HLP) 
  STR        ! HuLiS Wgt = 13.40% (HLP)  S1
    LONE END
    BOND D 1 2 D 3 5 D 4 6 D 7 13 D 8 12 D 9 18 D 10 11 D 14 15 D 16 17 S 1 4 S 1 24 S 2 3 S 2 10 S 3 9 S 4 23 S 5 7 S 5 12 S 6 7 S 6 22 S 8 13 S 8 20 S 9 11 S 10 25 S 11 14 S 12 21 S 13 19 S 14 26 S 15 16 S 15 27 S 16 28 S 17 18 S 17 29 S 18 30 END
  END
  STR        ! HuLiS Wgt = 13.60% (HLP)  S2
    LONE END
    BOND D 1 4 D 2 10 D 3 9 D 5 12 D 6 7 D 8 13 D 11 14 D 15 16 D 17 18 S 1 2 S 1 24 S 2 3 S 3 5 S 4 6 S 4 23 S 5 7 S 6 22 S 7 13 S 8 12 S 8 20 S 9 11 S 9 18 S 10 11 S 10 25 S 12 21 S 13 19 S 14 15 S 14 26 S 15 27 S 16 17 S 16 28 S 17 29 S 18 30 END
  END
  STR        ! HuLiS Wgt = 0.75% (HLP)  S3
    LONE 1 1 END
    BOND D 2 10 D 3 5 D 4 6 D 7 13 D 8 12 D 9 11 D 14 15 D 17 18 S 1 2 S 1 4 S 1 24 S 2 3 S 3 9 S 4 23 S 5 7 S 5 12 S 6 7 S 6 22 S 8 13 S 8 20 S 9 18 S 10 11 S 10 25 S 11 14 S 12 21 S 13 19 S 14 26 S 15 16 S 15 27 S 16 17 S 16 28 S 17 29 S 18 30 END
  END
  STR        ! HuLiS Wgt = 2.10% (HLP)  S4
    LONE 13 1 END
    BOND D 1 4 D 2 10 D 3 5 D 6 7 D 8 12 D 9 11 D 14 15 D 17 18 S 1 2 S 1 24 S 2 3 S 3 9 S 4 6 S 4 23 S 5 7 S 5 12 S 6 22 S 7 13 S 8 13 S 8 20 S 9 18 S 10 11 S 10 25 S 11 14 S 12 21 S 13 19 S 14 26 S 15 16 S 15 27 S 16 17 S 16 28 S 17 29 S 18 30 END
  END
  STR        ! HuLiS Wgt = 4.48% (HLP)  S5
    LONE 8 1 END
    BOND D 2 3 D 4 6 D 5 12 D 7 13 D 9 18 D 10 11 D 14 15 D 16 17 S 1 2 S 1 4 S 1 24 S 2 10 S 3 5 S 3 9 S 4 23 S 5 7 S 6 7 S 6 22 S 8 12 S 8 13 S 8 20 S 9 11 S 10 25 S 11 14 S 12 21 S 13 19 S 14 26 S 15 16 S 15 27 S 16 28 S 17 18 S 17 29 S 18 30 END
  END
  STR        ! HuLiS Wgt = 3.15% (HLP)  S6
    LONE 10 1 END
    BOND D 1 4 D 2 3 D 5 12 D 6 7 D 8 13 D 9 18 D 11 14 D 15 16 S 1 2 S 1 24 S 2 10 S 3 5 S 3 9 S 4 6 S 4 23 S 5 7 S 6 22 S 7 13 S 8 12 S 8 20 S 9 11 S 10 11 S 10 25 S 12 21 S 13 19 S 14 15 S 14 26 S 15 27 S 16 17 S 16 28 S 17 18 S 17 29 S 18 30 END
  END
  STR        ! HuLiS Wgt = 2.38% (HLP)  S7
    LONE 12 1 END
    BOND D 1 4 D 2 10 D 3 5 D 6 7 D 8 13 D 9 11 D 14 15 D 17 18 S 1 2 S 1 24 S 2 3 S 3 9 S 4 6 S 4 23 S 5 7 S 5 12 S 6 22 S 7 13 S 8 12 S 8 20 S 9 18 S 10 11 S 10 25 S 11 14 S 12 21 S 13 19 S 14 26 S 15 16 S 15 27 S 16 17 S 16 28 S 17 29 S 18 30 END
  END
  STR        ! HuLiS Wgt = 2.87% (HLP)  S8
    LONE 12 1 END
    BOND D 2 10 D 3 9 D 4 6 D 5 7 D 8 13 D 11 14 D 15 16 D 17 18 S 1 2 S 1 4 S 1 24 S 2 3 S 3 5 S 4 23 S 5 12 S 6 7 S 6 22 S 7 13 S 8 12 S 8 20 S 9 11 S 9 18 S 10 11 S 10 25 S 12 21 S 13 19 S 14 15 S 14 26 S 15 27 S 16 17 S 16 28 S 17 29 S 18 30 END
  END
  STR        ! HuLiS Wgt = 3.76% (HLP)  S9
    LONE 12 1 END
    BOND D 1 2 D 3 9 D 4 6 D 5 7 D 8 13 D 10 11 D 14 15 D 16 17 S 1 4 S 1 24 S 2 3 S 2 10 S 3 5 S 4 23 S 5 12 S 6 7 S 6 22 S 7 13 S 8 12 S 8 20 S 9 11 S 9 18 S 10 25 S 11 14 S 12 21 S 13 19 S 14 26 S 15 16 S 15 27 S 16 28 S 17 18 S 17 29 S 18 30 END
  END
  STR        ! HuLiS Wgt = 2.20% (HLP)  S10
    LONE 12 1 END
    BOND D 1 2 D 3 9 D 4 6 D 5 7 D 8 13 D 10 11 D 14 15 D 17 18 S 1 4 S 1 24 S 2 3 S 2 10 S 3 5 S 4 23 S 5 12 S 6 7 S 6 22 S 7 13 S 8 12 S 8 20 S 9 11 S 9 18 S 10 25 S 11 14 S 12 21 S 13 19 S 14 26 S 15 16 S 15 27 S 16 17 S 16 28 S 17 29 S 18 30 END
  END
  STR        ! HuLiS Wgt = 2.82% (HLP)  S11
    LONE 5 1 END
    BOND D 1 2 D 3 9 D 4 6 D 7 13 D 8 12 D 10 11 D 15 16 D 17 18 S 1 4 S 1 24 S 2 3 S 2 10 S 3 5 S 4 23 S 5 7 S 5 12 S 6 7 S 6 22 S 8 13 S 8 20 S 9 11 S 9 18 S 10 25 S 11 14 S 12 21 S 13 19 S 14 15 S 14 26 S 15 27 S 16 17 S 16 28 S 17 29 S 18 30 END
  END
  STR        ! HuLiS Wgt = 2.37% (HLP)  S12
    LONE 7 1 END
    BOND D 1 2 D 3 9 D 4 6 D 5 12 D 8 13 D 10 11 D 14 15 D 17 18 S 1 4 S 1 24 S 2 3 S 2 10 S 3 5 S 4 23 S 5 7 S 6 7 S 6 22 S 7 13 S 8 12 S 8 20 S 9 11 S 9 18 S 10 25 S 11 14 S 12 21 S 13 19 S 14 26 S 15 16 S 15 27 S 16 17 S 16 28 S 17 29 S 18 30 END
  END
  STR        ! HuLiS Wgt = 2.21% (HLP)  S13
    LONE 2 1 END
    BOND D 1 4 D 3 9 D 5 12 D 6 7 D 8 13 D 10 11 D 14 15 D 17 18 S 1 2 S 1 24 S 2 3 S 2 10 S 3 5 S 4 6 S 4 23 S 5 7 S 6 22 S 7 13 S 8 12 S 8 20 S 9 11 S 9 18 S 10 25 S 11 14 S 12 21 S 13 19 S 14 26 S 15 16 S 15 27 S 16 17 S 16 28 S 17 29 S 18 30 END
  END
  STR        ! HuLiS Wgt = 3.05% (HLP)  S14
    LONE 2 1 END
    BOND D 1 4 D 3 9 D 5 12 D 6 7 D 8 13 D 10 11 D 14 15 D 16 17 S 1 2 S 1 24 S 2 3 S 2 10 S 3 5 S 4 6 S 4 23 S 5 7 S 6 22 S 7 13 S 8 12 S 8 20 S 9 11 S 9 18 S 10 25 S 11 14 S 12 21 S 13 19 S 14 26 S 15 16 S 15 27 S 16 28 S 17 18 S 17 29 S 18 30 END
  END
  STR        ! HuLiS Wgt = 3.45% (HLP)  S15
    LONE 3 1 END
    BOND D 1 4 D 2 10 D 5 12 D 6 7 D 8 13 D 9 11 D 14 15 D 17 18 S 1 2 S 1 24 S 2 3 S 3 5 S 3 9 S 4 6 S 4 23 S 5 7 S 6 22 S 7 13 S 8 12 S 8 20 S 9 18 S 10 11 S 10 25 S 11 14 S 12 21 S 13 19 S 14 26 S 15 16 S 15 27 S 16 17 S 16 28 S 17 29 S 18 30 END
  END
  STR        ! HuLiS Wgt = 0.50% (HLP)  S16
    LONE 3 1 END
    BOND D 1 2 D 4 6 D 5 12 D 8 13 D 9 18 D 10 11 D 14 15 D 16 17 S 1 4 S 1 24 S 2 3 S 2 10 S 3 5 S 3 9 S 4 23 S 5 7 S 6 7 S 6 22 S 7 13 S 8 12 S 8 20 S 9 11 S 10 25 S 11 14 S 12 21 S 13 19 S 14 26 S 15 16 S 15 27 S 16 28 S 17 18 S 17 29 S 18 30 END
  END
  STR        ! HuLiS Wgt = 0.42% (HLP)  S17
    LONE 9 1 END
    BOND D 2 10 D 3 5 D 4 6 D 7 13 D 8 12 D 11 14 D 15 16 D 17 18 S 1 2 S 1 4 S 1 24 S 2 3 S 3 9 S 4 23 S 5 7 S 5 12 S 6 7 S 6 22 S 8 13 S 8 20 S 9 11 S 9 18 S 10 11 S 10 25 S 12 21 S 13 19 S 14 15 S 14 26 S 15 27 S 16 17 S 16 28 S 17 29 S 18 30 END
  END
  STR        ! HuLiS Wgt = 2.20% (HLP)  S18
    LONE 11 1 END
    BOND D 1 4 D 2 10 D 3 9 D 5 12 D 6 7 D 8 13 D 14 15 D 17 18 S 1 2 S 1 24 S 2 3 S 3 5 S 4 6 S 4 23 S 5 7 S 6 22 S 7 13 S 8 12 S 8 20 S 9 11 S 9 18 S 10 11 S 10 25 S 11 14 S 12 21 S 13 19 S 14 26 S 15 16 S 15 27 S 16 17 S 16 28 S 17 29 S 18 30 END
  END
  STR        ! HuLiS Wgt = 19.89% (HLP)  S19
    LONE END
    BOND D 1 4 D 2 3 D 5 12 D 6 7 D 8 13 D 9 18 D 10 11 D 14 15 D 16 17 S 1 2 S 1 24 S 2 10 S 3 5 S 3 9 S 4 6 S 4 23 S 5 7 S 6 22 S 7 13 S 8 12 S 8 20 S 9 11 S 10 25 S 11 14 S 12 21 S 13 19 S 14 26 S 15 16 S 15 27 S 16 28 S 17 18 S 17 29 S 18 30 END
  END
  STR        ! HuLiS Wgt = 0.77% (HLP)  S20
    LONE 4 1 END
    BOND D 1 2 D 3 9 D 5 12 D 6 7 D 8 13 D 11 14 D 15 16 D 17 18 S 1 4 S 1 24 S 2 3 S 2 10 S 3 5 S 4 6 S 4 23 S 5 7 S 6 22 S 7 13 S 8 12 S 8 20 S 9 11 S 9 18 S 10 11 S 10 25 S 12 21 S 13 19 S 14 15 S 14 26 S 15 27 S 16 17 S 16 28 S 17 29 S 18 30 END
  END
  STR        ! HuLiS Wgt = 1.35% (HLP)  S21
    LONE 4 1 END
    BOND D 1 2 D 3 9 D 5 12 D 6 7 D 8 13 D 10 11 D 14 15 D 17 18 S 1 4 S 1 24 S 2 3 S 2 10 S 3 5 S 4 6 S 4 23 S 5 7 S 6 22 S 7 13 S 8 12 S 8 20 S 9 11 S 9 18 S 10 25 S 11 14 S 12 21 S 13 19 S 14 26 S 15 16 S 15 27 S 16 17 S 16 28 S 17 29 S 18 30 END
  END
  STR        ! HuLiS Wgt = 1.52% (HLP)  S22
    LONE END
    BOND D 1 2 D 3 9 D 5 12 D 6 7 D 8 13 D 10 11 D 14 15 D 17 18 S 1 4 S 1 24 S 2 3 S 2 10 S 3 5 S 4 6 S 4 16 S 4 23 S 5 7 S 6 22 S 7 13 S 8 12 S 8 20 S 9 11 S 9 18 S 10 25 S 11 14 S 12 21 S 13 19 S 14 26 S 15 16 S 15 27 S 16 17 S 16 28 S 17 29 S 18 30 END
  END
  STR        ! HuLiS Wgt = 2.95% (HLP)  S23
    LONE END
    BOND D 1 4 D 3 5 D 6 7 D 8 12 D 9 18 D 10 11 D 14 15 D 16 17 S 1 2 S 1 24 S 2 3 S 2 10 S 2 13 S 3 9 S 4 6 S 4 23 S 5 7 S 5 12 S 6 22 S 7 13 S 8 13 S 8 20 S 9 11 S 10 25 S 11 14 S 12 21 S 13 19 S 14 26 S 15 16 S 15 27 S 16 28 S 17 18 S 17 29 S 18 30 END
  END
  STR        ! HuLiS Wgt = 0.92% (HLP)  S24
    LONE END
    BOND D 1 2 D 3 9 D 4 6 D 5 12 D 7 13 D 11 14 D 15 16 D 17 18 S 1 4 S 1 24 S 2 3 S 2 10 S 3 5 S 4 23 S 5 7 S 6 7 S 6 22 S 8 10 S 8 12 S 8 13 S 8 20 S 9 11 S 9 18 S 10 11 S 10 25 S 12 21 S 13 19 S 14 15 S 14 26 S 15 27 S 16 17 S 16 28 S 17 29 S 18 30 END
  END
  STR        ! HuLiS Wgt = 0.81% (HLP)  S25
    LONE END
    BOND D 1 2 D 3 9 D 4 6 D 5 12 D 7 13 D 10 11 D 14 15 D 16 17 S 1 4 S 1 24 S 2 3 S 2 10 S 3 5 S 4 23 S 5 7 S 6 7 S 6 22 S 8 12 S 8 13 S 8 18 S 8 20 S 9 11 S 9 18 S 10 25 S 11 14 S 12 21 S 13 19 S 14 26 S 15 16 S 15 27 S 16 28 S 17 18 S 17 29 S 18 30 END
  END
  STR        ! HuLiS Wgt = 0.62% (HLP)  S26
    LONE END
    BOND D 1 2 D 3 9 D 4 6 D 5 12 D 7 13 D 10 11 D 14 15 D 17 18 S 1 4 S 1 24 S 2 3 S 2 10 S 3 5 S 4 23 S 5 7 S 6 7 S 6 22 S 8 12 S 8 13 S 8 16 S 8 20 S 9 11 S 9 18 S 10 25 S 11 14 S 12 21 S 13 19 S 14 26 S 15 16 S 15 27 S 16 17 S 16 28 S 17 29 S 18 30 END
  END
  STR        ! HuLiS Wgt = 2.10% (HLP)  S27
    LONE END
    BOND D 1 2 D 4 6 D 5 12 D 7 13 D 9 18 D 10 11 D 14 15 D 16 17 S 1 4 S 1 24 S 2 3 S 2 10 S 3 5 S 3 8 S 3 9 S 4 23 S 5 7 S 6 7 S 6 22 S 8 12 S 8 13 S 8 20 S 9 11 S 10 25 S 11 14 S 12 21 S 13 19 S 14 26 S 15 16 S 15 27 S 16 28 S 17 18 S 17 29 S 18 30 END
  END
  STR        ! HuLiS Wgt = 3.05% (HLP)  S28
    LONE END
    BOND D 1 4 D 2 10 D 5 12 D 6 7 D 8 13 D 9 18 D 11 14 D 16 17 S 1 2 S 1 24 S 2 3 S 3 5 S 3 9 S 3 15 S 4 6 S 4 23 S 5 7 S 6 22 S 7 13 S 8 12 S 8 20 S 9 11 S 10 11 S 10 25 S 12 21 S 13 19 S 14 15 S 14 26 S 15 16 S 15 27 S 16 28 S 17 18 S 17 29 S 18 30 END
  END
  STR        ! HuLiS Wgt = 0.13% (HLP)  S29
    LONE 13 1 END
    BOND D 1 2 D 3 5 D 6 7 D 8 12 D 9 11 D 14 15 D 16 17 S 1 4 S 1 24 S 2 3 S 2 10 S 3 9 S 4 6 S 4 18 S 4 23 S 5 7 S 5 12 S 6 22 S 7 13 S 8 13 S 8 20 S 9 18 S 10 11 S 10 25 S 11 14 S 12 21 S 13 19 S 14 26 S 15 16 S 15 27 S 16 28 S 17 18 S 17 29 S 18 30 END
  END
  STR        ! HuLiS Wgt = 0.15% (HLP)  S30
    LONE 8 1 END
    BOND D 1 4 D 2 10 D 3 9 D 5 12 D 7 13 D 14 15 D 17 18 S 1 2 S 1 24 S 2 3 S 3 5 S 4 6 S 4 23 S 5 7 S 6 7 S 6 16 S 6 22 S 8 12 S 8 13 S 8 20 S 9 11 S 9 18 S 10 11 S 10 25 S 11 14 S 12 21 S 13 19 S 14 26 S 15 16 S 15 27 S 16 17 S 16 28 S 17 29 S 18 30 END
  END
$END
