%mem=256MB
#P HF 6-31G(d) pop=nboread

! File generated by the HuLiS 3.3.7 code - Thursday, March 7, 2024 at 4:26:31 PM Central European Standard Time

0 1
C      1.25965     -3.74506     -0.40865
C     -0.05410     -3.77042     -0.77094
C     -0.68259     -2.56367     -1.17744
C      0.03052     -1.32883     -1.21771
C      1.39803     -1.28350     -0.75904
C      2.01155     -2.52535     -0.38226
C     -2.01833     -2.36480     -1.61183
C     -0.87148     -0.33948     -1.75037
C     -3.39291     -0.47953     -2.42283
C     -2.18428     -1.03555     -1.95966
C     -3.67298      0.80617     -2.83732
C     -2.79047      1.90069     -2.93809
C     -1.44537      1.96191     -2.63493
C     -0.59551      0.96499     -2.10468
H     -2.78217     -3.12848     -1.66606
H      1.76354     -4.65904     -0.11115
H     -0.61700     -4.69735     -0.76364
C      2.17907     -0.11075     -0.61393
C      3.35775     -2.54223      0.04665
H      3.80142     -3.49522      0.31652
C      3.49081     -0.15733     -0.18271
C      4.09788     -1.38289      0.13787
H      5.12888     -1.41238      0.47086
H     -4.22470     -1.17963     -2.45655
H     -4.69657      0.99642     -3.14452
H     -3.22911      2.81876     -3.31913
H     -0.96369      2.91662     -2.82302
H      0.42731      1.29250     -1.97946
H      1.74614      0.85805     -0.80971
H      4.05143      0.76546     -0.08133

$nbo nrt $end
$NRTSTR ! Trust factor = 25.29% (HLP) 
  STR        ! HuLiS Wgt = 21.92% (HLP)  S1
    LONE END
    BOND D 1 2 D 3 4 D 5 18 D 6 19 D 7 10 D 8 14 D 9 11 D 12 13 D 21 22 S 1 6 S 1 16 S 2 3 S 2 17 S 3 7 S 4 5 S 4 8 S 5 6 S 7 15 S 8 10 S 9 10 S 9 24 S 11 12 S 11 25 S 12 26 S 13 14 S 13 27 S 14 28 S 18 21 S 18 29 S 19 20 S 19 22 S 21 30 S 22 23 END
  END
  STR        ! HuLiS Wgt = 27.46% (HLP)  S2
    LONE END
    BOND D 1 2 D 3 4 D 5 6 D 7 10 D 8 14 D 9 11 D 12 13 D 18 21 D 19 22 S 1 6 S 1 16 S 2 3 S 2 17 S 3 7 S 4 5 S 4 8 S 5 18 S 6 19 S 7 15 S 8 10 S 9 10 S 9 24 S 11 12 S 11 25 S 12 26 S 13 14 S 13 27 S 14 28 S 18 29 S 19 20 S 21 22 S 21 30 S 22 23 END
  END
  STR        ! HuLiS Wgt = 15.85% (HLP)  S3
    LONE END
    BOND D 1 2 D 3 7 D 4 8 D 5 18 D 6 19 D 9 10 D 11 12 D 13 14 D 21 22 S 1 6 S 1 16 S 2 3 S 2 17 S 3 4 S 4 5 S 5 6 S 7 10 S 7 15 S 8 10 S 8 14 S 9 11 S 9 24 S 11 25 S 12 13 S 12 26 S 13 27 S 14 28 S 18 21 S 18 29 S 19 20 S 19 22 S 21 30 S 22 23 END
  END
  STR        ! HuLiS Wgt = 18.19% (HLP)  S4
    LONE END
    BOND D 1 2 D 3 7 D 4 8 D 5 6 D 9 10 D 11 12 D 13 14 D 18 21 D 19 22 S 1 6 S 1 16 S 2 3 S 2 17 S 3 4 S 4 5 S 5 18 S 6 19 S 7 10 S 7 15 S 8 10 S 8 14 S 9 11 S 9 24 S 11 25 S 12 13 S 12 26 S 13 27 S 14 28 S 18 29 S 19 20 S 21 22 S 21 30 S 22 23 END
  END
  STR        ! HuLiS Wgt = 16.58% (HLP)  S5
    LONE END
    BOND D 1 6 D 2 3 D 4 5 D 7 10 D 8 14 D 9 11 D 12 13 D 18 21 D 19 22 S 1 2 S 1 16 S 2 17 S 3 4 S 3 7 S 4 8 S 5 6 S 5 18 S 6 19 S 7 15 S 8 10 S 9 10 S 9 24 S 11 12 S 11 25 S 12 26 S 13 14 S 13 27 S 14 28 S 18 29 S 19 20 S 21 22 S 21 30 S 22 23 END
  END
$END
